[General]
description = "Simulates normal ether host network"
network = testinet.Network
sim-time-limit = 30s

[Config HostNetwork]
**.h = default
**.mac.address = "auto"
**.**.**.sendInterval = 1s 
**.**.**.packetLength = 150B
**.**.csmacdSupport = false
**.HostB.app.destAddress = ""
**.**.app.destAddress = "HostB"

